data/feeders/R4-25.00-1.glm
clock {
     timezone EST+5EDT;
     timestamp '2000-01-01 0:00:00';
     stoptime '2000-01-01 0:01:00';
}
#set profiler=1
module tape;
module powerflow{
  solver_method NR;
  default_maximum_voltage_error 1e-6;
};
object transformer_configuration {
  name XF1_POLETOP_BS_10;
  power_rating 10.00;
  powerA_rating 0.0;
  powerB_rating 10.00;
  powerC_rating 0.0;
  install_type POLETOP;
  connect_type SINGLE_PHASE_CENTER_TAPPED;
  primary_voltage 14400.0;
  secondary_voltage 120.0;
  resistance 0.00950;
  resistance1 0.01900;
  resistance2 0.01900;
  reactance 0.01040;
  reactance1 0.00520;
  reactance2 0.00520;
  shunt_resistance 147.06;
  shunt_reactance 34.25;
}
object transformer_configuration {
  name XF1_POLETOP_CS_15;
  power_rating 15.00;
  powerA_rating 0.0;
  powerB_rating 0.0;
  powerC_rating 15.00;
  install_type POLETOP;
  connect_type SINGLE_PHASE_CENTER_TAPPED;
  primary_voltage 14400.0;
  secondary_voltage 120.0;
  resistance 0.00850;
  resistance1 0.01700;
  resistance2 0.01700;
  reactance 0.01176;
  reactance1 0.00588;
  reactance2 0.00588;
  shunt_resistance 166.67;
  shunt_reactance 39.53;
}
object transformer_configuration {
  name XF1_POLETOP_CS_5;
  power_rating 5.00;
  powerA_rating 0.0;
  powerB_rating 0.0;
  powerC_rating 5.00;
  install_type POLETOP;
  connect_type SINGLE_PHASE_CENTER_TAPPED;
  primary_voltage 14400.0;
  secondary_voltage 120.0;
  resistance 0.01050;
  resistance1 0.02100;
  resistance2 0.02100;
  reactance 0.01224;
  reactance1 0.00612;
  reactance2 0.00612;
  shunt_resistance 111.11;
  shunt_reactance 29.59;
}
object transformer_configuration {
  name XF1_POLETOP_CS_10;
  power_rating 10.00;
  powerA_rating 0.0;
  powerB_rating 0.0;
  powerC_rating 10.00;
  install_type POLETOP;
  connect_type SINGLE_PHASE_CENTER_TAPPED;
  primary_voltage 14400.0;
  secondary_voltage 120.0;
  resistance 0.00950;
  resistance1 0.01900;
  resistance2 0.01900;
  reactance 0.01040;
  reactance1 0.00520;
  reactance2 0.00520;
  shunt_resistance 147.06;
  shunt_reactance 34.25;
}
object transformer_configuration {
  name XF1_POLETOP_CS_25;
  power_rating 25.00;
  powerA_rating 0.0;
  powerB_rating 0.0;
  powerC_rating 25.00;
  install_type POLETOP;
  connect_type SINGLE_PHASE_CENTER_TAPPED;
  primary_voltage 14400.0;
  secondary_voltage 120.0;
  resistance 0.00800;
  resistance1 0.01600;
  resistance2 0.01600;
  reactance 0.01208;
  reactance1 0.00604;
  reactance2 0.00604;
  shunt_resistance 192.31;
  shunt_reactance 51.81;
}
object transformer_configuration {
  name XF1_POLETOP_BS_15;
  power_rating 15.00;
  powerA_rating 0.0;
  powerB_rating 15.00;
  powerC_rating 0.0;
  install_type POLETOP;
  connect_type SINGLE_PHASE_CENTER_TAPPED;
  primary_voltage 14400.0;
  secondary_voltage 120.0;
  resistance 0.00850;
  resistance1 0.01700;
  resistance2 0.01700;
  reactance 0.01176;
  reactance1 0.00588;
  reactance2 0.00588;
  shunt_resistance 166.67;
  shunt_reactance 39.53;
}
object transformer_configuration {
  name XF1_POLETOP_BS_25;
  power_rating 25.00;
  powerA_rating 0.0;
  powerB_rating 25.00;
  powerC_rating 0.0;
  install_type POLETOP;
  connect_type SINGLE_PHASE_CENTER_TAPPED;
  primary_voltage 14400.0;
  secondary_voltage 120.0;
  resistance 0.00800;
  resistance1 0.01600;
  resistance2 0.01600;
  reactance 0.01208;
  reactance1 0.00604;
  reactance2 0.00604;
  shunt_resistance 192.31;
  shunt_reactance 51.81;
}
object transformer_configuration {
  name XF1_POLETOP_BS_5;
  power_rating 5.00;
  powerA_rating 0.0;
  powerB_rating 5.00;
  powerC_rating 0.0;
  install_type POLETOP;
  connect_type SINGLE_PHASE_CENTER_TAPPED;
  primary_voltage 14400.0;
  secondary_voltage 120.0;
  resistance 0.01050;
  resistance1 0.02100;
  resistance2 0.02100;
  reactance 0.01224;
  reactance1 0.00612;
  reactance2 0.00612;
  shunt_resistance 111.11;
  shunt_reactance 29.59;
}
object transformer_configuration {
  name XF1_POLETOP_AS_5;
  power_rating 5.00;
  powerA_rating 5.00;
  powerB_rating 0.0;
  powerC_rating 0.0;
  install_type POLETOP;
  connect_type SINGLE_PHASE_CENTER_TAPPED;
  primary_voltage 14400.0;
  secondary_voltage 120.0;
  resistance 0.01050;
  resistance1 0.02100;
  resistance2 0.02100;
  reactance 0.01224;
  reactance1 0.00612;
  reactance2 0.00612;
  shunt_resistance 111.11;
  shunt_reactance 29.59;
}
object transformer_configuration {
  name XF1_POLETOP_BS_37p5;
  power_rating 37.50;
  powerA_rating 0.0;
  powerB_rating 37.50;
  powerC_rating 0.0;
  install_type POLETOP;
  connect_type SINGLE_PHASE_CENTER_TAPPED;
  primary_voltage 14400.0;
  secondary_voltage 120.0;
  resistance 0.00725;
  resistance1 0.01450;
  resistance2 0.01450;
  reactance 0.01320;
  reactance1 0.00660;
  reactance2 0.00660;
  shunt_resistance 212.77;
  shunt_reactance 57.47;
}
object transformer_configuration {
  name XF1_POLETOP_AS_10;
  power_rating 10.00;
  powerA_rating 10.00;
  powerB_rating 0.0;
  powerC_rating 0.0;
  install_type POLETOP;
  connect_type SINGLE_PHASE_CENTER_TAPPED;
  primary_voltage 14400.0;
  secondary_voltage 120.0;
  resistance 0.00950;
  resistance1 0.01900;
  resistance2 0.01900;
  reactance 0.01040;
  reactance1 0.00520;
  reactance2 0.00520;
  shunt_resistance 147.06;
  shunt_reactance 34.25;
}
object transformer_configuration {
  name XF1_POLETOP_AS_25;
  power_rating 25.00;
  powerA_rating 25.00;
  powerB_rating 0.0;
  powerC_rating 0.0;
  install_type POLETOP;
  connect_type SINGLE_PHASE_CENTER_TAPPED;
  primary_voltage 14400.0;
  secondary_voltage 120.0;
  resistance 0.00800;
  resistance1 0.01600;
  resistance2 0.01600;
  reactance 0.01208;
  reactance1 0.00604;
  reactance2 0.00604;
  shunt_resistance 192.31;
  shunt_reactance 51.81;
}
object transformer_configuration {
  name XF1_POLETOP_CS_37p5;
  power_rating 37.50;
  powerA_rating 0.0;
  powerB_rating 0.0;
  powerC_rating 37.50;
  install_type POLETOP;
  connect_type SINGLE_PHASE_CENTER_TAPPED;
  primary_voltage 14400.0;
  secondary_voltage 120.0;
  resistance 0.00725;
  resistance1 0.01450;
  resistance2 0.01450;
  reactance 0.01320;
  reactance1 0.00660;
  reactance2 0.00660;
  shunt_resistance 212.77;
  shunt_reactance 57.47;
}
object transformer_configuration {
  name XF1_PADMOUNT_BS_5;
  power_rating 5.00;
  powerA_rating 0.0;
  powerB_rating 5.00;
  powerC_rating 0.0;
  install_type PADMOUNT;
  connect_type SINGLE_PHASE_CENTER_TAPPED;
  primary_voltage 14400.0;
  secondary_voltage 120.0;
  resistance 0.01050;
  resistance1 0.02100;
  resistance2 0.02100;
  reactance 0.01224;
  reactance1 0.00612;
  reactance2 0.00612;
  shunt_resistance 111.11;
  shunt_reactance 29.59;
}
object transformer_configuration {
  name XF1_PADMOUNT_BS_10;
  power_rating 10.00;
  powerA_rating 0.0;
  powerB_rating 10.00;
  powerC_rating 0.0;
  install_type PADMOUNT;
  connect_type SINGLE_PHASE_CENTER_TAPPED;
  primary_voltage 14400.0;
  secondary_voltage 120.0;
  resistance 0.00950;
  resistance1 0.01900;
  resistance2 0.01900;
  reactance 0.01040;
  reactance1 0.00520;
  reactance2 0.00520;
  shunt_resistance 147.06;
  shunt_reactance 34.25;
}
object transformer_configuration {
  name XF1_PADMOUNT_BS_15;
  power_rating 15.00;
  powerA_rating 0.0;
  powerB_rating 15.00;
  powerC_rating 0.0;
  install_type PADMOUNT;
  connect_type SINGLE_PHASE_CENTER_TAPPED;
  primary_voltage 14400.0;
  secondary_voltage 120.0;
  resistance 0.00850;
  resistance1 0.01700;
  resistance2 0.01700;
  reactance 0.01176;
  reactance1 0.00588;
  reactance2 0.00588;
  shunt_resistance 166.67;
  shunt_reactance 39.53;
}
object transformer_configuration {
  name XF1_PADMOUNT_AS_25;
  power_rating 25.00;
  powerA_rating 25.00;
  powerB_rating 0.0;
  powerC_rating 0.0;
  install_type PADMOUNT;
  connect_type SINGLE_PHASE_CENTER_TAPPED;
  primary_voltage 14400.0;
  secondary_voltage 120.0;
  resistance 0.00800;
  resistance1 0.01600;
  resistance2 0.01600;
  reactance 0.01208;
  reactance1 0.00604;
  reactance2 0.00604;
  shunt_resistance 192.31;
  shunt_reactance 51.81;
}
object transformer_configuration {
  name XF1_PADMOUNT_AS_10;
  power_rating 10.00;
  powerA_rating 10.00;
  powerB_rating 0.0;
  powerC_rating 0.0;
  install_type PADMOUNT;
  connect_type SINGLE_PHASE_CENTER_TAPPED;
  primary_voltage 14400.0;
  secondary_voltage 120.0;
  resistance 0.00950;
  resistance1 0.01900;
  resistance2 0.01900;
  reactance 0.01040;
  reactance1 0.00520;
  reactance2 0.00520;
  shunt_resistance 147.06;
  shunt_reactance 34.25;
}
object transformer_configuration {
  name XF2_POLETOP_ACN_30;
  power_rating 30.00;
  powerA_rating 15.00;
  powerB_rating 0.0;
  powerC_rating 15.00;
  install_type POLETOP;
  connect_type WYE_WYE;
  primary_voltage 24900.0;
  secondary_voltage 208.0;
  resistance 0.01900;
  reactance 0.01770;
  shunt_resistance 126.58;
  shunt_reactance 22.57;
}
object regulator_configuration {
  name feeder_reg_cfg;
  Control OUTPUT_VOLTAGE;
  band_center 14975.0;
  band_width 240;
  connect_type WYE_WYE;
  time_delay 30;
  raise_taps 16;
  lower_taps 16;
  regulation 0.10;
  tap_pos_A 0;
  tap_pos_B 0;
  tap_pos_C 0;
}
object overhead_line_conductor {
  name ID_461;
  rating.summer.continuous 204.0;
  geometric_mean_radius 0.00836 ft;
  resistance 0.94500;
}
object overhead_line_conductor {
  name ID_462;
  rating.summer.continuous 530.0;
  geometric_mean_radius 0.02300 ft;
  resistance 0.30300;
}
object overhead_line_conductor {
  name ID_463;
  rating.summer.continuous 149.0;
  geometric_mean_radius 0.00663 ft;
  resistance 1.50000;
}
object overhead_line_conductor {
  name ID_464;
  rating.summer.continuous 256.0;
  geometric_mean_radius 0.01200 ft;
  resistance 0.16600;
}
object overhead_line_conductor {
  name ID_465;
  rating.summer.continuous 300.0;
  geometric_mean_radius 0.00600 ft;
  resistance 0.63800;
}
object line_spacing {
  name ID_44;
  distance_BN 48.0 in;
}
object line_spacing {
  name ID_45;
  distance_CN 48.0 in;
}
object line_spacing {
  name ID_46;
  distance_AB 57.6 in;
  distance_BC 57.6 in;
  distance_AC 57.6 in;
  distance_AN 48.0 in;
  distance_BN 48.0 in;
  distance_CN 48.0 in;
}
object line_spacing {
  name ID_47;
  distance_AN 48.0 in;
}
object line_spacing {
  name ID_48;
  distance_AC 51.6 in;
  distance_AN 48.0 in;
  distance_CN 48.0 in;
}
object line_spacing {
  name ID_49;
  distance_CN 0.0 in;
}
object line_spacing {
  name ID_50;
  distance_AN 0.0 in;
}
object line_spacing {
  name ID_51;
  distance_AB 48.0 in;
  distance_BC 48.0 in;
  distance_AC 48.0 in;
  distance_AN 48.0 in;
  distance_BN 48.0 in;
  distance_CN 48.0 in;
}
object line_configuration {
  name ID_31;
  conductor_B ID_461;
  conductor_N ID_461;
  spacing ID_44;
}
object line_configuration {
  name ID_32;
  conductor_C ID_461;
  conductor_N ID_461;
  spacing ID_45;
}
object line_configuration {
  name ID_33;
  conductor_A ID_462;
  conductor_B ID_462;
  conductor_C ID_462;
  conductor_N ID_462;
  spacing ID_46;
}
object line_configuration {
  name ID_34;
  conductor_B ID_463;
  conductor_N ID_463;
  spacing ID_44;
}
object line_configuration {
  name ID_35;
  conductor_A ID_461;
  conductor_N ID_461;
  spacing ID_47;
}
object line_configuration {
  name ID_36;
  conductor_C ID_464;
  conductor_N ID_464;
  spacing ID_45;
}
object line_configuration {
  name ID_37;
  conductor_C ID_464;
  conductor_N ID_464;
  spacing ID_45;
}
object line_configuration {
  name ID_38;
  conductor_A ID_461;
  conductor_C ID_461;
  conductor_N ID_461;
  spacing ID_48;
}
object line_configuration {
  name ID_39;
  conductor_C ID_1214;
  conductor_N ID_1214;
  spacing ID_49;
}
object line_configuration {
  name ID_40;
  conductor_C ID_1214;
  conductor_N ID_1214;
  spacing ID_45;
}
object line_configuration {
  name ID_41;
  conductor_A ID_1214;
  conductor_N ID_1214;
  spacing ID_50;
}
object line_configuration {
  name ID_42;
  conductor_A ID_463;
  conductor_N ID_463;
  spacing ID_47;
}
object line_configuration {
  name ID_43;
  conductor_A ID_462;
  conductor_B ID_462;
  conductor_C ID_462;
  conductor_N ID_462;
  spacing ID_51;
}
object triplex_line_conductor {
  name triplex_4/0_aa;
  resistance 0.48;
  geometric_mean_radius 0.0158;
  rating.summer.continuous 1000.0;
  rating.summer.emergency 1000.0;
  rating.winter.continuous 1000.0;
  rating.winter.emergency 1000.0;
}
object triplex_line_configuration {
  name ID_631;
  conductor_1 triplex_4/0_aa;
  conductor_2 triplex_4/0_aa;
  conductor_N triplex_4/0_aa;
  insulation_thickness 0.08;
  diameter 0.522;
}
object underground_line_conductor {
  name ID_1214;
  rating.summer.continuous 214.0;
  outer_diameter 1.32;
  conductor_gmr 0.0177 ft;
  conductor_diameter 0.528;
  conductor_resistance 0.433488;
  neutral_gmr 0.00208 ft;
  neutral_resistance 14.87;
  neutral_diameter 0.0641;
  neutral_strands 11.0;
  insulation_relative_permitivitty 2.3;
}
object fuse {
  name R4_25_00_1_fuse_1;
// downstream 16.77 kva on CS
  phases CN;
  from R4_25_00_1_node_45;
  to R4_25_00_1_node_94;
  current_limit 40;
  status CLOSED;
  mean_replacement_time 3600;
}
object fuse {
  name R4_25_00_1_fuse_2;
// downstream 1.02 kva on CS
  phases CN;
  from R4_25_00_1_node_161;
  to R4_25_00_1_node_96;
  current_limit 40;
  status CLOSED;
  mean_replacement_time 3600;
}
object fuse {
  name R4_25_00_1_fuse_3;
// downstream 11.22 kva on CS
  phases CN;
  from R4_25_00_1_node_162;
  to R4_25_00_1_node_77;
  current_limit 40;
  status CLOSED;
  mean_replacement_time 3600;
}
object fuse {
  name R4_25_00_1_fuse_4;
// downstream 91.79 kva on CS
  phases CN;
  from R4_25_00_1_node_134;
  to R4_25_00_1_node_78;
  current_limit 40;
  status CLOSED;
  mean_replacement_time 3600;
}
object fuse {
  name R4_25_00_1_fuse_5;
// downstream 19.39 kva on CS
  phases CN;
  from R4_25_00_1_node_134;
  to R4_25_00_1_node_79;
  current_limit 40;
  status CLOSED;
  mean_replacement_time 3600;
}
object fuse {
  name R4_25_00_1_fuse_6;
// downstream 36.73 kva on CS
  phases CN;
  from R4_25_00_1_node_48;
  to R4_25_00_1_node_80;
  current_limit 40;
  status CLOSED;
  mean_replacement_time 3600;
}
object fuse {
  name R4_25_00_1_fuse_7;
// downstream 8.16 kva on CS
  phases CN;
  from R4_25_00_1_node_53;
  to R4_25_00_1_node_81;
  current_limit 40;
  status CLOSED;
  mean_replacement_time 3600;
}
object fuse {
  name R4_25_00_1_fuse_8;
// downstream 12.24 kva on CS
  phases CN;
  from R4_25_00_1_node_176;
  to R4_25_00_1_node_82;
  current_limit 40;
  status CLOSED;
  mean_replacement_time 3600;
}
object fuse {
  name R4_25_00_1_fuse_9;
// downstream 24.45 kva on CS
  phases CN;
  from R4_25_00_1_node_49;
  to R4_25_00_1_node_83;
  current_limit 40;
  status CLOSED;
  mean_replacement_time 3600;
}
object fuse {
  name R4_25_00_1_fuse_10;
// downstream 1.02 kva on CS
  phases CN;
  from R4_25_00_1_node_51;
  to R4_25_00_1_node_84;
  current_limit 40;
  status CLOSED;
  mean_replacement_time 3600;
}
object fuse {
  name R4_25_00_1_fuse_11;
// downstream 149.48 kva on BS
  phases BN;
  from R4_25_00_1_node_23;
  to R4_25_00_1_node_85;
  current_limit 40;
  status CLOSED;
  mean_replacement_time 3600;
}
object fuse {
  name R4_25_00_1_fuse_12;
// downstream 16.33 kva on CS
  phases CN;
  from R4_25_00_1_node_32;
  to R4_25_00_1_node_86;
  current_limit 40;
  status CLOSED;
  mean_replacement_time 3600;
}
object fuse {
  name R4_25_00_1_fuse_13;
// downstream 1.02 kva on BS
  phases BN;
  from R4_25_00_1_node_156;
  to R4_25_00_1_node_87;
  current_limit 40;
  status CLOSED;
  mean_replacement_time 3600;
}
object fuse {
  name R4_25_00_1_fuse_14;
// downstream 13.27 kva on AS
  phases AN;
  from R4_25_00_1_node_13;
  to R4_25_00_1_node_102;
  current_limit 40;
  status CLOSED;
  mean_replacement_time 3600;
}
object fuse {
  name R4_25_00_1_fuse_15;
// downstream 5.10 kva on AS
  phases AN;
  from R4_25_00_1_node_13;
  to R4_25_00_1_node_88;
  current_limit 40;
  status CLOSED;
  mean_replacement_time 3600;
}
object fuse {
  name R4_25_00_1_fuse_16;
// downstream 4.47 kva on BS
  phases BN;
  from R4_25_00_1_node_19;
  to R4_25_00_1_node_89;
  current_limit 40;
  status CLOSED;
  mean_replacement_time 3600;
}
object fuse {
  name R4_25_00_1_fuse_17;
// downstream 32.02 kva on CS
  phases CN;
  from R4_25_00_1_node_151;
  to R4_25_00_1_node_90;
  current_limit 40;
  status CLOSED;
  mean_replacement_time 3600;
}
object fuse {
  name R4_25_00_1_fuse_18;
// downstream 1.02 kva on AS
  phases AN;
  from R4_25_00_1_node_154;
  to R4_25_00_1_node_91;
  current_limit 40;
  status CLOSED;
  mean_replacement_time 3600;
}
object fuse {
  name R4_25_00_1_fuse_19;
// downstream 14.29 kva on CS
  phases CN;
  from R4_25_00_1_node_15;
  to R4_25_00_1_node_92;
  current_limit 40;
  status CLOSED;
  mean_replacement_time 3600;
}
object fuse {
  name R4_25_00_1_fuse_20;
// downstream 144.90 kva on CS
  phases CN;
  from R4_25_00_1_node_65;
  to R4_25_00_1_node_93;
  current_limit 40;
  status CLOSED;
  mean_replacement_time 3600;
}
object fuse {
  name R4_25_00_1_fuse_21;
// downstream 2.04 kva on CS
  phases CN;
  from R4_25_00_1_node_38;
  to R4_25_00_1_node_97;
  current_limit 40;
  status CLOSED;
  mean_replacement_time 3600;
}
object fuse {
  name R4_25_00_1_fuse_22;
// downstream 8.16 kva on CS
  phases CN;
  from R4_25_00_1_node_145;
  to R4_25_00_1_node_98;
  current_limit 40;
  status CLOSED;
  mean_replacement_time 3600;
}
object fuse {
  name R4_25_00_1_fuse_23;
// downstream 16.33 kva on CS
  phases CN;
  from R4_25_00_1_node_50;
  to R4_25_00_1_node_99;
  current_limit 40;
  status CLOSED;
  mean_replacement_time 3600;
}
object fuse {
  name R4_25_00_1_fuse_24;
// downstream 4.08 kva on CS
  phases CN;
  from R4_25_00_1_node_40;
  to R4_25_00_1_node_100;
  current_limit 40;
  status CLOSED;
  mean_replacement_time 3600;
}
object fuse {
  name R4_25_00_1_fuse_25;
// downstream 7.14 kva on CS
  phases CN;
  from R4_25_00_1_node_190;
  to R4_25_00_1_node_101;
  current_limit 40;
  status CLOSED;
  mean_replacement_time 3600;
}
object fuse {
  name R4_25_00_1_fuse_26;
// downstream 9.18 kva on CS
  phases CN;
  from R4_25_00_1_node_1;
  to R4_25_00_1_node_95;
  current_limit 40;
  status CLOSED;
  mean_replacement_time 3600;
}
object fuse {
  name R4_25_00_1_fuse_27;
// downstream 8.16 kva on CS
  phases CN;
  from R4_25_00_1_node_46;
  to R4_25_00_1_node_103;
  current_limit 40;
  status CLOSED;
  mean_replacement_time 3600;
}
object fuse {
  name R4_25_00_1_fuse_28;
// downstream 14.29 kva on CS
  phases CN;
  from R4_25_00_1_node_59;
  to R4_25_00_1_node_76;
  current_limit 40;
  status CLOSED;
  mean_replacement_time 3600;
}
object switch {
  name R4_25_00_1_switch_1;
  phases ABCN;
  from R4_25_00_1_node_127;
  to R4_25_00_1_node_74;
  status CLOSED;
}
object switch {
  name R4_25_00_1_switch_2;
// downstream 1033.72 kva on ABCS
  phases ABCN;
  from R4_25_00_1_node_2;
  to R4_25_00_1_node_75;
  status CLOSED;
}
object switch {
  name R4_25_00_1_switch_3;
  phases ABCN;
  from R4_25_00_1_node_32;
  to R4_25_00_1_node_73;
  status CLOSED;
}
object recloser {
  name R4-12-00-1_recloser_1;
// downstream 636.86 kva on CS
  phases CN;
  from R4_25_00_1_node_25;
  to R4_25_00_1_node_104;
  status CLOSED;
  operating_mode INDIVIDUAL;
  phase_A_state CLOSED;
  phase_B_state CLOSED;
  phase_C_state CLOSED;
  retry_time 1.0 s;
  max_number_of_tries 3;
  number_of_tries 0;
}
object overhead_line {
  name R4_25_00_1_ol_1;
// downstream 15.31 kva on BS
  phases BN;
  from R4_25_00_1_node_5;
  to R4_25_00_1_node_130;
  length 108.057;
  configuration ID_31;
}
object overhead_line {
  name R4_25_00_1_ol_2;
// downstream 7.14 kva on BS
  phases BN;
  from R4_25_00_1_node_130;
  to R4_25_00_1_node_4;
  length 52.756;
  configuration ID_31;
}
object overhead_line {
  name R4_25_00_1_ol_3;
// downstream 16.33 kva on CS
  phases CN;
  from R4_25_00_1_node_71;
  to R4_25_00_1_node_166;
  length 243.622;
  configuration ID_32;
}
object overhead_line {
  name R4_25_00_1_ol_4;
// downstream 7.14 kva on CS
  phases CN;
  from R4_25_00_1_node_166;
  to R4_25_00_1_node_167;
  length 285.109;
  configuration ID_32;
}
object overhead_line {
  name R4_25_00_1_ol_5;
// downstream 3.06 kva on CS
  phases CN;
  from R4_25_00_1_node_167;
  to R4_25_00_1_node_168;
  length 249.452;
  configuration ID_32;
}
object overhead_line {
  name R4_25_00_1_ol_6;
// downstream 119.39 kva on CS
  phases CN;
  from R4_25_00_1_node_68;
  to R4_25_00_1_node_69;
  length 250.280;
  configuration ID_32;
}
object overhead_line {
  name R4_25_00_1_ol_7;
// downstream 73.47 kva on CS
  phases CN;
  from R4_25_00_1_node_69;
  to R4_25_00_1_node_162;
  length 229.582;
  configuration ID_32;
}
object overhead_line {
  name R4_25_00_1_ol_8;
// downstream 55.10 kva on CS
  phases CN;
  from R4_25_00_1_node_162;
  to R4_25_00_1_node_163;
  length 202.543;
  configuration ID_32;
}
object overhead_line {
  name R4_25_00_1_ol_9;
// downstream 36.73 kva on CS
  phases CN;
  from R4_25_00_1_node_163;
  to R4_25_00_1_node_71;
  length 253.085;
  configuration ID_32;
}
object overhead_line {
  name R4_25_00_1_ol_10;
// downstream 16.33 kva on CS
  phases CN;
  from R4_25_00_1_node_69;
  to R4_25_00_1_node_161;
  length 189.649;
  configuration ID_32;
}
object overhead_line {
  name R4_25_00_1_ol_11;
// downstream 1033.72 kva on ABCS
  phases ABCN;
  from R4_25_00_1_node_11;
  to R4_25_00_1_node_12;
  length 442.207;
  configuration ID_33;
}
object overhead_line {
  name R4_25_00_1_ol_12;
// downstream 6.12 kva on CS
  phases CN;
  from R4_25_00_1_node_57;
  to R4_25_00_1_node_199;
  length 233.246;
  configuration ID_32;
}
object overhead_line {
  name R4_25_00_1_ol_13;
// downstream 8.16 kva on CS
  phases CN;
  from R4_25_00_1_node_55;
  to R4_25_00_1_node_195;
  length 29.791;
  configuration ID_32;
}
object overhead_line {
  name R4_25_00_1_ol_14;
// downstream 7.14 kva on CS
  phases CN;
  from R4_25_00_1_node_64;
  to R4_25_00_1_node_204;
  length 246.808;
  configuration ID_32;
}
object overhead_line {
  name R4_25_00_1_ol_15;
// downstream 1.02 kva on CS
  phases CN;
  from R4_25_00_1_node_64;
  to R4_25_00_1_node_203;
  length 198.611;
  configuration ID_32;
}
object overhead_line {
  name R4_25_00_1_ol_16;
// downstream 16.33 kva on CS
  phases CN;
  from R4_25_00_1_node_33;
  to R4_25_00_1_node_106;
  length 153.368;
  configuration ID_32;
}
object overhead_line {
  name R4_25_00_1_ol_17;
// downstream 14.29 kva on CS
  phases CN;
  from R4_25_00_1_node_106;
  to R4_25_00_1_node_37;
  length 86.082;
  configuration ID_32;
}
object overhead_line {
  name R4_25_00_1_ol_18;
// downstream 20.89 kva on ABCS
  phases ABCN;
  from R4_25_00_1_node_23;
  to R4_25_00_1_node_22;
  length 157.183;
  configuration ID_33;
}
object overhead_line {
  name R4_25_00_1_ol_19;
// downstream 170.36 kva on ABCS
  phases ABCN;
  from R4_25_00_1_node_24;
  to R4_25_00_1_node_23;
  length 70.785;
  configuration ID_33;
}
object overhead_line {
  name R4_25_00_1_ol_20;
// downstream 76.53 kva on BS
  phases BN;
  from R4_25_00_1_node_116;
  to R4_25_00_1_node_8;
  length 164.667;
  configuration ID_31;
}
object overhead_line {
  name R4_25_00_1_ol_21;
// downstream 68.37 kva on BS
  phases BN;
  from R4_25_00_1_node_8;
  to R4_25_00_1_node_118;
  length 177.265;
  configuration ID_31;
}
object overhead_line {
  name R4_25_00_1_ol_22;
// downstream 58.16 kva on BS
  phases BN;
  from R4_25_00_1_node_118;
  to R4_25_00_1_node_119;
  length 264.433;
  configuration ID_31;
}
object overhead_line {
  name R4_25_00_1_ol_23;
// downstream 41.84 kva on BS
  phases BN;
  from R4_25_00_1_node_119;
  to R4_25_00_1_node_120;
  length 239.233;
  configuration ID_31;
}
object overhead_line {
  name R4_25_00_1_ol_24;
// downstream 31.63 kva on BS
  phases BN;
  from R4_25_00_1_node_120;
  to R4_25_00_1_node_121;
  length 217.207;
  configuration ID_31;
}
object overhead_line {
  name R4_25_00_1_ol_25;
// downstream 26.53 kva on BS
  phases BN;
  from R4_25_00_1_node_121;
  to R4_25_00_1_node_7;
  length 203.576;
  configuration ID_31;
}
object overhead_line {
  name R4_25_00_1_ol_26;
// downstream 15.31 kva on BS
  phases BN;
  from R4_25_00_1_node_7;
  to R4_25_00_1_node_5;
  length 216.339;
  configuration ID_31;
}
object overhead_line {
  name R4_25_00_1_ol_27;
// downstream 7.14 kva on BS
  phases BN;
  from R4_25_00_1_node_4;
  to R4_25_00_1_node_122;
  length 288.583;
  configuration ID_31;
}
object overhead_line {
  name R4_25_00_1_ol_28;
// downstream 11.81 kva on BS
  phases BN;
  from R4_25_00_1_node_123;
  to R4_25_00_1_node_124;
  length 344.378;
  configuration ID_34;
}
object overhead_line {
  name R4_25_00_1_ol_29;
// downstream 8.75 kva on BS
  phases BN;
  from R4_25_00_1_node_124;
  to R4_25_00_1_node_125;
  length 224.531;
  configuration ID_34;
}
object overhead_line {
  name R4_25_00_1_ol_30;
// downstream 2.04 kva on BS
  phases BN;
  from R4_25_00_1_node_125;
  to R4_25_00_1_node_10;
  length 351.661;
  configuration ID_34;
}
object overhead_line {
  name R4_25_00_1_ol_31;
// downstream 25.08 kva on BS
  phases BN;
  from R4_25_00_1_node_116;
  to R4_25_00_1_node_123;
  length 725.231;
  configuration ID_34;
}
object overhead_line {
  name R4_25_00_1_ol_32;
// downstream 16.41 kva on ABCS
  phases ABCN;
  from R4_25_00_1_node_18;
  to R4_25_00_1_node_127;
  length 176.244;
  configuration ID_33;
}
object overhead_line {
  name R4_25_00_1_ol_33;
// downstream 16.33 kva on CS
  phases ABCN;
  from R4_25_00_1_node_30;
  to R4_25_00_1_node_32;
  length 222.055;
  configuration ID_33;
}
object overhead_line {
  name R4_25_00_1_ol_34;
  phases AN;
  from R4_25_00_1_node_32;
  to R4_25_00_1_node_31;
  length 183.558;
  configuration ID_35;
}
object overhead_line {
  name R4_25_00_1_ol_35;
// downstream 2.04 kva on BS
  phases BN;
  from R4_25_00_1_node_10;
  to R4_25_00_1_node_131;
  length 210.301;
  configuration ID_34;
}
object overhead_line {
  name R4_25_00_1_ol_36;
// downstream 11.22 kva on CS
  phases CN;
  from R4_25_00_1_node_71;
  to R4_25_00_1_node_164;
  length 160.023;
  configuration ID_32;
}
object overhead_line {
  name R4_25_00_1_ol_37;
// downstream 9.18 kva on CS
  phases CN;
  from R4_25_00_1_node_71;
  to R4_25_00_1_node_165;
  length 314.152;
  configuration ID_32;
}
object overhead_line {
  name R4_25_00_1_ol_38;
// downstream 14.29 kva on CS
  phases CN;
  from R4_25_00_1_node_37;
  to R4_25_00_1_node_137;
  length 408.163;
  configuration ID_32;
}
object overhead_line {
  name R4_25_00_1_ol_39;
// downstream 2.04 kva on CS
  phases CN;
  from R4_25_00_1_node_137;
  to R4_25_00_1_node_38;
  length 145.889;
  configuration ID_32;
}
object overhead_line {
  name R4_25_00_1_ol_40;
// downstream 565.43 kva on CS
  phases CN;
  from R4_25_00_1_node_35;
  to R4_25_00_1_node_1;
  length 324.521;
  configuration ID_36;
}
object overhead_line {
  name R4_25_00_1_ol_41;
// downstream 556.24 kva on CS
  phases CN;
  from R4_25_00_1_node_1;
  to R4_25_00_1_node_135;
  length 461.195;
  configuration ID_36;
}
object overhead_line {
  name R4_25_00_1_ol_42;
// downstream 369.16 kva on CS
  phases CN;
  from R4_25_00_1_node_134;
  to R4_25_00_1_node_45;
  length 688.880;
  configuration ID_37;
}
object overhead_line {
  name R4_25_00_1_ol_43;
// downstream 343.21 kva on CS
  phases CN;
  from R4_25_00_1_node_45;
  to R4_25_00_1_node_47;
  length 132.106;
  configuration ID_37;
}
object overhead_line {
  name R4_25_00_1_ol_44;
// downstream 41.21 kva on CS
  phases CN;
  from R4_25_00_1_node_135;
  to R4_25_00_1_node_144;
  length 635.432;
  configuration ID_32;
}
object overhead_line {
  name R4_25_00_1_ol_45;
// downstream 28.96 kva on CS
  phases CN;
  from R4_25_00_1_node_144;
  to R4_25_00_1_node_143;
  length 356.372;
  configuration ID_32;
}
object overhead_line {
  name R4_25_00_1_ol_46;
// downstream 12.64 kva on CS
  phases CN;
  from R4_25_00_1_node_143;
  to R4_25_00_1_node_145;
  length 213.926;
  configuration ID_32;
}
object overhead_line {
  name R4_25_00_1_ol_47;
// downstream 7.14 kva on CS
  phases CN;
  from R4_25_00_1_node_44;
  to R4_25_00_1_node_142;
  length 502.022;
  configuration ID_32;
}
object overhead_line {
  name R4_25_00_1_ol_48;
// downstream 508.91 kva on CS
  phases CN;
  from R4_25_00_1_node_135;
  to R4_25_00_1_node_141;
  length 338.441;
  configuration ID_36;
}
object overhead_line {
  name R4_25_00_1_ol_49;
// downstream 500.75 kva on CS
  phases CN;
  from R4_25_00_1_node_141;
  to R4_25_00_1_node_42;
  length 151.138;
  configuration ID_36;
}
object overhead_line {
  name R4_25_00_1_ol_50;
// downstream 490.55 kva on CS
  phases CN;
  from R4_25_00_1_node_42;
  to R4_25_00_1_node_134;
  length 658.677;
  configuration ID_36;
}
object overhead_line {
  name R4_25_00_1_ol_51;
// downstream 292.19 kva on CS
  phases CN;
  from R4_25_00_1_node_48;
  to R4_25_00_1_node_52;
  length 530.565;
  configuration ID_37;
}
object overhead_line {
  name R4_25_00_1_ol_52;
// downstream 343.21 kva on CS
  phases CN;
  from R4_25_00_1_node_47;
  to R4_25_00_1_node_48;
  length 94.183;
  configuration ID_37;
}
object overhead_line {
  name R4_25_00_1_ol_53;
// downstream 16.33 kva on CS
  phases CN;
  from R4_25_00_1_node_52;
  to R4_25_00_1_node_50;
  length 156.149;
  configuration ID_32;
}
object overhead_line {
  name R4_25_00_1_ol_54;
// downstream 19.39 kva on CS
  phases CN;
  from R4_25_00_1_node_43;
  to R4_25_00_1_node_41;
  length 130.257;
  configuration ID_32;
}
object overhead_line {
  name R4_25_00_1_ol_55;
// downstream 15.31 kva on CS
  phases CN;
  from R4_25_00_1_node_41;
  to R4_25_00_1_node_177;
  length 649.561;
  configuration ID_32;
}
object overhead_line {
  name R4_25_00_1_ol_56;
// downstream 275.86 kva on CS
  phases CN;
  from R4_25_00_1_node_52;
  to R4_25_00_1_node_53;
  length 396.183;
  configuration ID_37;
}
object overhead_line {
  name R4_25_00_1_ol_57;
// downstream 256.47 kva on CS
  phases CN;
  from R4_25_00_1_node_53;
  to R4_25_00_1_node_171;
  length 366.048;
  configuration ID_37;
}
object overhead_line {
  name R4_25_00_1_ol_58;
// downstream 246.27 kva on CS
  phases CN;
  from R4_25_00_1_node_171;
  to R4_25_00_1_node_51;
  length 790.851;
  configuration ID_37;
}
object overhead_line {
  name R4_25_00_1_ol_59;
// downstream 245.25 kva on CS
  phases CN;
  from R4_25_00_1_node_51;
  to R4_25_00_1_node_49;
  length 204.207;
  configuration ID_37;
}
object overhead_line {
  name R4_25_00_1_ol_60;
// downstream 220.80 kva on CS
  phases CN;
  from R4_25_00_1_node_49;
  to R4_25_00_1_node_176;
  length 546.170;
  configuration ID_37;
}
object overhead_line {
  name R4_25_00_1_ol_61;
// downstream 205.49 kva on CS
  phases CN;
  from R4_25_00_1_node_176;
  to R4_25_00_1_node_174;
  length 185.532;
  configuration ID_37;
}
object overhead_line {
  name R4_25_00_1_ol_62;
// downstream 201.02 kva on CS
  phases CN;
  from R4_25_00_1_node_174;
  to R4_25_00_1_node_66;
  length 255.765;
  configuration ID_37;
}
object overhead_line {
  name R4_25_00_1_ol_63;
// downstream 16.41 kva on ABCS
  phases ABCN;
  from R4_25_00_1_node_19;
  to R4_25_00_1_node_18;
  length 100.019;
  configuration ID_33;
}
object overhead_line {
  name R4_25_00_1_ol_64;
// downstream 20.89 kva on ABCS
  phases ABCN;
  from R4_25_00_1_node_22;
  to R4_25_00_1_node_19;
  length 191.000;
  configuration ID_33;
}
object overhead_line {
  name R4_25_00_1_ol_65;
// downstream 170.36 kva on ABCS
  phases ABCN;
  from R4_25_00_1_node_189;
  to R4_25_00_1_node_24;
  length 104.060;
  configuration ID_33;
}
object overhead_line {
  name R4_25_00_1_ol_66;
// downstream 184.74 kva on ABCS
  phases ABCN;
  from R4_25_00_1_node_188;
  to R4_25_00_1_node_189;
  length 169.691;
  configuration ID_33;
}
object overhead_line {
  name R4_25_00_1_ol_67;
// downstream 212.37 kva on ABCS
  phases ABCN;
  from R4_25_00_1_node_187;
  to R4_25_00_1_node_188;
  length 264.405;
  configuration ID_33;
}
object overhead_line {
  name R4_25_00_1_ol_68;
// downstream 40.90 kva on ABCS
  phases ABCN;
  from R4_25_00_1_node_187;
  to R4_25_00_1_node_186;
  length 399.836;
  configuration ID_33;
}
object overhead_line {
  name R4_25_00_1_ol_69;
// downstream 16.33 kva on CS
  phases ABCN;
  from R4_25_00_1_node_186;
  to R4_25_00_1_node_30;
  length 88.180;
  configuration ID_33;
}
object overhead_line {
  name R4_25_00_1_ol_70;
// downstream 262.55 kva on ABCS
  phases ABCN;
  from R4_25_00_1_node_26;
  to R4_25_00_1_node_187;
  length 555.870;
  configuration ID_33;
}
object overhead_line {
  name R4_25_00_1_ol_71;
// downstream 273.77 kva on ABCS
  phases ABCN;
  from R4_25_00_1_node_225;
  to R4_25_00_1_node_26;
  length 150.429;
  configuration ID_33;
}
object overhead_line {
  name R4_25_00_1_ol_72;
// downstream 287.12 kva on ABCS
  phases ABCN;
  from R4_25_00_1_node_20;
  to R4_25_00_1_node_225;
  length 319.451;
  configuration ID_33;
}
object overhead_line {
  name R4_25_00_1_ol_73;
// downstream 42.22 kva on ACS
  phases ACN;
  from R4_25_00_1_node_20;
  to R4_25_00_1_node_151;
  length 329.400;
  configuration ID_38;
}
object overhead_line {
  name R4_25_00_1_ol_74;
// downstream 329.34 kva on ABCS
  phases ABCN;
  from R4_25_00_1_node_17;
  to R4_25_00_1_node_20;
  length 348.494;
  configuration ID_33;
}
object overhead_line {
  name R4_25_00_1_ol_75;
// downstream 637.88 kva on CS
  phases CN;
  from R4_25_00_1_node_17;
  to R4_25_00_1_node_179;
  length 164.759;
  configuration ID_36;
}
object overhead_line {
  name R4_25_00_1_ol_76;
// downstream 636.86 kva on CS
  phases CN;
  from R4_25_00_1_node_179;
  to R4_25_00_1_node_25;
  length 394.866;
  configuration ID_36;
}
object overhead_line {
  name R4_25_00_1_ol_77;
// downstream 1033.72 kva on ABCS
  phases ABCN;
  from R4_25_00_1_node_12;
  to R4_25_00_1_node_156;
  length 651.719;
  configuration ID_33;
}
object overhead_line {
  name R4_25_00_1_ol_78;
// downstream 967.22 kva on ABCS
  phases ABCN;
  from R4_25_00_1_node_154;
  to R4_25_00_1_node_17;
  length 379.976;
  configuration ID_33;
}
object overhead_line {
  name R4_25_00_1_ol_79;
// downstream 986.69 kva on ABCS
  phases ABCN;
  from R4_25_00_1_node_15;
  to R4_25_00_1_node_154;
  length 582.940;
  configuration ID_33;
}
object overhead_line {
  name R4_25_00_1_ol_80;
// downstream 1000.98 kva on ABCS
  phases ABCN;
  from R4_25_00_1_node_13;
  to R4_25_00_1_node_15;
  length 294.574;
  configuration ID_33;
}
object overhead_line {
  name R4_25_00_1_ol_81;
// downstream 1019.35 kva on ABCS
  phases ABCN;
  from R4_25_00_1_node_156;
  to R4_25_00_1_node_13;
  length 426.671;
  configuration ID_33;
}
object overhead_line {
  name R4_25_00_1_ol_82;
// downstream 1033.72 kva on ABCS
  phases ABCN;
  from R4_25_00_1_node_75;
  to R4_25_00_1_node_11;
  length 503.492;
  configuration ID_33;
}
object overhead_line {
  name R4_25_00_1_ol_83;
// downstream 29.59 kva on CS
  phases CN;
  from R4_25_00_1_node_54;
  to R4_25_00_1_node_57;
  length 106.712;
  configuration ID_32;
}
object overhead_line {
  name R4_25_00_1_ol_84;
// downstream 23.47 kva on CS
  phases CN;
  from R4_25_00_1_node_57;
  to R4_25_00_1_node_201;
  length 354.559;
  configuration ID_32;
}
object overhead_line {
  name R4_25_00_1_ol_85;
// downstream 8.16 kva on CS
  phases CN;
  from R4_25_00_1_node_201;
  to R4_25_00_1_node_202;
  length 246.418;
  configuration ID_32;
}
object overhead_line {
  name R4_25_00_1_ol_86;
// downstream 4.08 kva on CS
  phases CN;
  from R4_25_00_1_node_202;
  to R4_25_00_1_node_200;
  length 221.436;
  configuration ID_32;
}
object overhead_line {
  name R4_25_00_1_ol_87;
// downstream 201.02 kva on CS
  phases CN;
  from R4_25_00_1_node_66;
  to R4_25_00_1_node_65;
  length 234.027;
  configuration ID_37;
}
object overhead_line {
  name R4_25_00_1_ol_88;
// downstream 56.12 kva on CS
  phases CN;
  from R4_25_00_1_node_65;
  to R4_25_00_1_node_64;
  length 773.583;
  configuration ID_32;
}
object overhead_line {
  name R4_25_00_1_ol_89;
// downstream 47.96 kva on CS
  phases CN;
  from R4_25_00_1_node_64;
  to R4_25_00_1_node_62;
  length 725.193;
  configuration ID_32;
}
object overhead_line {
  name R4_25_00_1_ol_90;
// downstream 43.88 kva on CS
  phases CN;
  from R4_25_00_1_node_62;
  to R4_25_00_1_node_61;
  length 135.186;
  configuration ID_32;
}
object overhead_line {
  name R4_25_00_1_ol_91;
// downstream 23.47 kva on CS
  phases CN;
  from R4_25_00_1_node_61;
  to R4_25_00_1_node_197;
  length 185.098;
  configuration ID_32;
}
object overhead_line {
  name R4_25_00_1_ol_92;
// downstream 14.29 kva on CS
  phases CN;
  from R4_25_00_1_node_197;
  to R4_25_00_1_node_198;
  length 165.189;
  configuration ID_32;
}
object overhead_line {
  name R4_25_00_1_ol_93;
// downstream 6.12 kva on CS
  phases CN;
  from R4_25_00_1_node_198;
  to R4_25_00_1_node_60;
  length 419.226;
  configuration ID_32;
}
object overhead_line {
  name R4_25_00_1_ol_94;
  phases CN;
  from R4_25_00_1_node_60;
  to R4_25_00_1_node_63;
  length 554.460;
  configuration ID_32;
}
object overhead_line {
  name R4_25_00_1_ol_95;
// downstream 11.22 kva on BS
  phases BN;
  from R4_25_00_1_node_6;
  to R4_25_00_1_node_129;
  length 63.771;
  configuration ID_31;
}
object overhead_line {
  name R4_25_00_1_ol_96;
// downstream 29.59 kva on CS
  phases CN;
  from R4_25_00_1_node_69;
  to R4_25_00_1_node_160;
  length 161.657;
  configuration ID_32;
}
object overhead_line {
  name R4_25_00_1_ol_97;
// downstream 2.04 kva on CS
  phases CN;
  from R4_25_00_1_node_67;
  to R4_25_00_1_node_205;
  length 223.412;
  configuration ID_32;
}
object overhead_line {
  name R4_25_00_1_ol_98;
// downstream 4.08 kva on CS
  phases CN;
  from R4_25_00_1_node_61;
  to R4_25_00_1_node_208;
  length 259.420;
  configuration ID_32;
}
object overhead_line {
  name R4_25_00_1_ol_99;
// downstream 16.33 kva on CS
  phases CN;
  from R4_25_00_1_node_61;
  to R4_25_00_1_node_209;
  length 415.574;
  configuration ID_32;
}
object overhead_line {
  name R4_25_00_1_ol_100;
// downstream 6.12 kva on CS
  phases CN;
  from R4_25_00_1_node_60;
  to R4_25_00_1_node_196;
  length 200.943;
  configuration ID_32;
}
object overhead_line {
  name R4_25_00_1_ol_101;
// downstream 5.10 kva on AS
  phases AN;
  from R4_25_00_1_node_127;
  to R4_25_00_1_node_126;
  length 156.563;
  configuration ID_35;
}
object overhead_line {
  name R4_25_00_1_ol_102;
// downstream 1.02 kva on BS
  phases BN;
  from R4_25_00_1_node_128;
  to R4_25_00_1_node_112;
  length 164.429;
  configuration ID_31;
}
object overhead_line {
  name R4_25_00_1_ol_103;
// downstream 4.47 kva on BS
  phases BN;
  from R4_25_00_1_node_21;
  to R4_25_00_1_node_107;
  length 387.383;
  configuration ID_31;
}
object overhead_line {
  name R4_25_00_1_ol_104;
// downstream 12.24 kva on BS
  phases BN;
  from R4_25_00_1_node_9;
  to R4_25_00_1_node_110;
  length 396.256;
  configuration ID_31;
}
object overhead_line {
  name R4_25_00_1_ol_105;
// downstream 3.06 kva on BS
  phases BN;
  from R4_25_00_1_node_114;
  to R4_25_00_1_node_108;
  length 741.033;
  configuration ID_31;
}
object overhead_line {
  name R4_25_00_1_ol_106;
// downstream 8.16 kva on BS
  phases BN;
  from R4_25_00_1_node_8;
  to R4_25_00_1_node_117;
  length 108.800;
  configuration ID_31;
}
object overhead_line {
  name R4_25_00_1_ol_107;
// downstream 11.22 kva on BS
  phases BN;
  from R4_25_00_1_node_7;
  to R4_25_00_1_node_6;
  length 99.141;
  configuration ID_31;
}
object overhead_line {
  name R4_25_00_1_ol_108;
// downstream 17.35 kva on AS
  phases AN;
  from R4_25_00_1_node_29;
  to R4_25_00_1_node_111;
  length 140.961;
  configuration ID_35;
}
object overhead_line {
  name R4_25_00_1_ol_109;
// downstream 8.16 kva on CS
  phases CN;
  from R4_25_00_1_node_14;
  to R4_25_00_1_node_109;
  length 211.914;
  configuration ID_32;
}
object overhead_line {
  name R4_25_00_1_ol_110;
// downstream 8.16 kva on CS
  phases CN;
  from R4_25_00_1_node_132;
  to R4_25_00_1_node_133;
  length 222.965;
  configuration ID_32;
}
object overhead_line {
  name R4_25_00_1_ol_111;
// downstream 7.14 kva on CS
  phases CN;
  from R4_25_00_1_node_134;
  to R4_25_00_1_node_146;
  length 240.417;
  configuration ID_32;
}
object overhead_line {
  name R4_25_00_1_ol_112;
// downstream 9.18 kva on CS
  phases CN;
  from R4_25_00_1_node_45;
  to R4_25_00_1_node_148;
  length 161.161;
  configuration ID_32;
}
object overhead_line {
  name R4_25_00_1_ol_113;
// downstream 11.22 kva on CS
  phases CN;
  from R4_25_00_1_node_53;
  to R4_25_00_1_node_170;
  length 605.391;
  configuration ID_32;
}
object overhead_line {
  name R4_25_00_1_ol_114;
// downstream 4.08 kva on CS
  phases CN;
  from R4_25_00_1_node_41;
  to R4_25_00_1_node_40;
  length 65.443;
  configuration ID_32;
}
object overhead_line {
  name R4_25_00_1_ol_115;
// downstream 17.35 kva on AS
  phases AN;
  from R4_25_00_1_node_186;
  to R4_25_00_1_node_29;
  length 51.567;
  configuration ID_35;
}
object overhead_line {
  name R4_25_00_1_ol_116;
// downstream 11.22 kva on CS
  phases CN;
  from R4_25_00_1_node_26;
  to R4_25_00_1_node_183;
  length 290.724;
  configuration ID_32;
}
object overhead_line {
  name R4_25_00_1_ol_117;
// downstream 19.39 kva on CS
  phases CN;
  from R4_25_00_1_node_16;
  to R4_25_00_1_node_193;
  length 371.299;
  configuration ID_32;
}
object overhead_line {
  name R4_25_00_1_ol_118;
// downstream 13.27 kva on CS
  phases CN;
  from R4_25_00_1_node_193;
  to R4_25_00_1_node_184;
  length 95.689;
  configuration ID_32;
}
object overhead_line {
  name R4_25_00_1_ol_119;
// downstream 8.16 kva on CS
  phases CN;
  from R4_25_00_1_node_184;
  to R4_25_00_1_node_14;
  length 137.865;
  configuration ID_32;
}
object overhead_line {
  name R4_25_00_1_ol_120;
// downstream 5.10 kva on CS
  phases CN;
  from R4_25_00_1_node_27;
  to R4_25_00_1_node_182;
  length 274.289;
  configuration ID_32;
}
object overhead_line {
  name R4_25_00_1_ol_121;
// downstream 14.29 kva on CS
  phases CN;
  from R4_25_00_1_node_28;
  to R4_25_00_1_node_180;
  length 214.636;
  configuration ID_32;
}
object overhead_line {
  name R4_25_00_1_ol_122;
// downstream 11.22 kva on CS
  phases CN;
  from R4_25_00_1_node_181;
  to R4_25_00_1_node_190;
  length 196.206;
  configuration ID_32;
}
object overhead_line {
  name R4_25_00_1_ol_123;
// downstream 5.10 kva on CS
  phases CN;
  from R4_25_00_1_node_226;
  to R4_25_00_1_node_185;
  length 110.676;
  configuration ID_32;
}
object overhead_line {
  name R4_25_00_1_ol_124;
// downstream 9.18 kva on CS
  phases CN;
  from R4_25_00_1_node_201;
  to R4_25_00_1_node_194;
  length 750.718;
  configuration ID_32;
}
object overhead_line {
  name R4_25_00_1_ol_125;
// downstream 11.22 kva on CS
  phases CN;
  from R4_25_00_1_node_77;
  to R4_25_00_1_node_70;
  length 85.429;
  configuration ID_32;
}
object overhead_line {
  name R4_25_00_1_ol_126;
// downstream 91.79 kva on CS
  phases CN;
  from R4_25_00_1_node_78;
  to R4_25_00_1_node_147;
  length 220.411;
  configuration ID_32;
}
object overhead_line {
  name R4_25_00_1_ol_127;
// downstream 16.33 kva on CS
  phases CN;
  from R4_25_00_1_node_58;
  to R4_25_00_1_node_140;
  length 207.862;
  configuration ID_32;
}
object overhead_line {
  name R4_25_00_1_ol_128;
// downstream 78.53 kva on CS
  phases CN;
  from R4_25_00_1_node_147;
  to R4_25_00_1_node_132;
  length 132.336;
  configuration ID_32;
}
object overhead_line {
  name R4_25_00_1_ol_129;
// downstream 67.30 kva on CS
  phases CN;
  from R4_25_00_1_node_132;
  to R4_25_00_1_node_139;
  length 290.955;
  configuration ID_32;
}
object overhead_line {
  name R4_25_00_1_ol_130;
// downstream 57.10 kva on CS
  phases CN;
  from R4_25_00_1_node_139;
  to R4_25_00_1_node_46;
  length 226.491;
  configuration ID_32;
}
object overhead_line {
  name R4_25_00_1_ol_131;
// downstream 48.94 kva on CS
  phases CN;
  from R4_25_00_1_node_46;
  to R4_25_00_1_node_136;
  length 697.185;
  configuration ID_32;
}
object overhead_line {
  name R4_25_00_1_ol_132;
// downstream 44.46 kva on CS
  phases CN;
  from R4_25_00_1_node_136;
  to R4_25_00_1_node_44;
  length 329.166;
  configuration ID_32;
}
object overhead_line {
  name R4_25_00_1_ol_133;
// downstream 37.32 kva on CS
  phases CN;
  from R4_25_00_1_node_44;
  to R4_25_00_1_node_58;
  length 295.071;
  configuration ID_32;
}
object overhead_line {
  name R4_25_00_1_ol_134;
// downstream 19.39 kva on CS
  phases CN;
  from R4_25_00_1_node_79;
  to R4_25_00_1_node_43;
  length 585.407;
  configuration ID_32;
}
object overhead_line {
  name R4_25_00_1_ol_135;
// downstream 36.73 kva on CS
  phases CN;
  from R4_25_00_1_node_80;
  to R4_25_00_1_node_169;
  length 430.989;
  configuration ID_32;
}
object overhead_line {
  name R4_25_00_1_ol_136;
// downstream 29.59 kva on CS
  phases CN;
  from R4_25_00_1_node_169;
  to R4_25_00_1_node_54;
  length 87.756;
  configuration ID_32;
}
object overhead_line {
  name R4_25_00_1_ol_137;
// downstream 8.16 kva on CS
  phases CN;
  from R4_25_00_1_node_81;
  to R4_25_00_1_node_55;
  length 154.149;
  configuration ID_32;
}
object overhead_line {
  name R4_25_00_1_ol_138;
// downstream 12.24 kva on CS
  phases CN;
  from R4_25_00_1_node_82;
  to R4_25_00_1_node_175;
  length 187.873;
  configuration ID_32;
}
object overhead_line {
  name R4_25_00_1_ol_139;
// downstream 24.45 kva on CS
  phases CN;
  from R4_25_00_1_node_83;
  to R4_25_00_1_node_173;
  length 134.314;
  configuration ID_32;
}
object overhead_line {
  name R4_25_00_1_ol_140;
// downstream 1.02 kva on CS
  phases CN;
  from R4_25_00_1_node_84;
  to R4_25_00_1_node_172;
  length 439.478;
  configuration ID_32;
}
object overhead_line {
  name R4_25_00_1_ol_141;
// downstream 149.48 kva on BS
  phases BN;
  from R4_25_00_1_node_85;
  to R4_25_00_1_node_128;
  length 194.148;
  configuration ID_34;
}
object overhead_line {
  name R4_25_00_1_ol_142;
// downstream 146.42 kva on BS
  phases BN;
  from R4_25_00_1_node_128;
  to R4_25_00_1_node_113;
  length 305.443;
  configuration ID_34;
}
object overhead_line {
  name R4_25_00_1_ol_143;
// downstream 145.40 kva on BS
  phases BN;
  from R4_25_00_1_node_113;
  to R4_25_00_1_node_21;
  length 209.418;
  configuration ID_34;
}
object overhead_line {
  name R4_25_00_1_ol_144;
// downstream 140.92 kva on BS
  phases BN;
  from R4_25_00_1_node_21;
  to R4_25_00_1_node_9;
  length 495.158;
  configuration ID_34;
}
object overhead_line {
  name R4_25_00_1_ol_145;
// downstream 128.68 kva on BS
  phases BN;
  from R4_25_00_1_node_9;
  to R4_25_00_1_node_114;
  length 268.556;
  configuration ID_34;
}
object overhead_line {
  name R4_25_00_1_ol_146;
// downstream 119.50 kva on BS
  phases BN;
  from R4_25_00_1_node_114;
  to R4_25_00_1_node_115;
  length 314.024;
  configuration ID_34;
}
object overhead_line {
  name R4_25_00_1_ol_147;
// downstream 112.79 kva on BS
  phases BN;
  from R4_25_00_1_node_115;
  to R4_25_00_1_node_116;
  length 100.340;
  configuration ID_34;
}
object overhead_line {
  name R4_25_00_1_ol_148;
// downstream 16.33 kva on CS
  phases CN;
  from R4_25_00_1_node_86;
  to R4_25_00_1_node_33;
  length 91.913;
  configuration ID_32;
}
object overhead_line {
  name R4_25_00_1_ol_149;
// downstream 1.02 kva on BS
  phases BN;
  from R4_25_00_1_node_87;
  to R4_25_00_1_node_178;
  length 276.349;
  configuration ID_31;
}
object overhead_line {
  name R4_25_00_1_ol_150;
// downstream 5.10 kva on AS
  phases AN;
  from R4_25_00_1_node_88;
  to R4_25_00_1_node_157;
  length 180.423;
  configuration ID_42;
}
object overhead_line {
  name R4_25_00_1_ol_151;
// downstream 4.47 kva on BS
  phases BN;
  from R4_25_00_1_node_89;
  to R4_25_00_1_node_152;
  length 304.452;
  configuration ID_34;
}
object overhead_line {
  name R4_25_00_1_ol_152;
// downstream 32.02 kva on CS
  phases CN;
  from R4_25_00_1_node_90;
  to R4_25_00_1_node_16;
  length 229.893;
  configuration ID_32;
}
object overhead_line {
  name R4_25_00_1_ol_153;
// downstream 7.14 kva on CS
  phases CN;
  from R4_25_00_1_node_150;
  to R4_25_00_1_node_149;
  length 201.328;
  configuration ID_32;
}
object overhead_line {
  name R4_25_00_1_ol_154;
// downstream 12.64 kva on CS
  phases CN;
  from R4_25_00_1_node_16;
  to R4_25_00_1_node_159;
  length 194.200;
  configuration ID_32;
}
object overhead_line {
  name R4_25_00_1_ol_155;
// downstream 8.16 kva on CS
  phases CN;
  from R4_25_00_1_node_159;
  to R4_25_00_1_node_150;
  length 282.929;
  configuration ID_32;
}
object overhead_line {
  name R4_25_00_1_ol_156;
// downstream 1.02 kva on AS
  phases AN;
  from R4_25_00_1_node_91;
  to R4_25_00_1_node_153;
  length 242.271;
  configuration ID_35;
}
object overhead_line {
  name R4_25_00_1_ol_157;
// downstream 14.29 kva on CS
  phases CN;
  from R4_25_00_1_node_92;
  to R4_25_00_1_node_158;
  length 178.499;
  configuration ID_32;
}
object overhead_line {
  name R4_25_00_1_ol_158;
// downstream 10.20 kva on CS
  phases CN;
  from R4_25_00_1_node_158;
  to R4_25_00_1_node_155;
  length 359.472;
  configuration ID_32;
}
object overhead_line {
  name R4_25_00_1_ol_159;
// downstream 144.90 kva on CS
  phases CN;
  from R4_25_00_1_node_93;
  to R4_25_00_1_node_206;
  length 231.656;
  configuration ID_32;
}
object overhead_line {
  name R4_25_00_1_ol_160;
// downstream 137.76 kva on CS
  phases CN;
  from R4_25_00_1_node_206;
  to R4_25_00_1_node_67;
  length 137.853;
  configuration ID_32;
}
object overhead_line {
  name R4_25_00_1_ol_161;
// downstream 135.72 kva on CS
  phases CN;
  from R4_25_00_1_node_67;
  to R4_25_00_1_node_207;
  length 155.037;
  configuration ID_32;
}
object overhead_line {
  name R4_25_00_1_ol_162;
// downstream 119.39 kva on CS
  phases CN;
  from R4_25_00_1_node_207;
  to R4_25_00_1_node_68;
  length 37.520;
  configuration ID_32;
}
object overhead_line {
  name R4_25_00_1_ol_163;
// downstream 636.86 kva on CS
  phases CN;
  from R4_25_00_1_node_104;
  to R4_25_00_1_node_27;
  length 396.060;
  configuration ID_36;
}
object overhead_line {
  name R4_25_00_1_ol_164;
// downstream 565.43 kva on CS
  phases CN;
  from R4_25_00_1_node_226;
  to R4_25_00_1_node_35;
  length 50.638;
  configuration ID_36;
}
object overhead_line {
  name R4_25_00_1_ol_165;
// downstream 631.75 kva on CS
  phases CN;
  from R4_25_00_1_node_27;
  to R4_25_00_1_node_28;
  length 117.922;
  configuration ID_36;
}
object overhead_line {
  name R4_25_00_1_ol_166;
// downstream 617.47 kva on CS
  phases CN;
  from R4_25_00_1_node_28;
  to R4_25_00_1_node_181;
  length 92.722;
  configuration ID_36;
}
object overhead_line {
  name R4_25_00_1_ol_167;
// downstream 604.20 kva on CS
  phases CN;
  from R4_25_00_1_node_181;
  to R4_25_00_1_node_191;
  length 222.353;
  configuration ID_36;
}
object overhead_line {
  name R4_25_00_1_ol_168;
// downstream 592.98 kva on CS
  phases CN;
  from R4_25_00_1_node_191;
  to R4_25_00_1_node_192;
  length 159.083;
  configuration ID_36;
}
object overhead_line {
  name R4_25_00_1_ol_169;
// downstream 574.61 kva on CS
  phases CN;
  from R4_25_00_1_node_192;
  to R4_25_00_1_node_226;
  length 182.617;
  configuration ID_36;
}
object overhead_line {
  name R4_25_00_1_ol_170;
// downstream 8.16 kva on CS
  phases CN;
  from R4_25_00_1_node_103;
  to R4_25_00_1_node_138;
  length 571.059;
  configuration ID_32;
}
object overhead_line {
  name R4_25_00_1_ol_171;
// downstream 1033.72 kva on ABCS
  phases ABCN;
  from R4_25_00_1_node_230;
  to R4_25_00_1_node_3;
  length 115.953;
  configuration ID_43;
}
object overhead_line {
  name R4_25_00_1_ol_172;
  phases ABCN;
  from R4_25_00_1_node_3;
  to R4_25_00_1_node_72;
  length 10.327;
  configuration ID_43;
}
object overhead_line {
  name R4_25_00_1_ol_173;
// downstream 1033.72 kva on ABCS
  phases ABCN;
  from R4_25_00_1_node_3;
  to R4_25_00_1_node_2;
  length 184.999;
  configuration ID_43;
}
object overhead_line {
  name R4_25_00_1_ol_174;
// downstream 20.99 kva on CS
  phases CN;
  from R4_25_00_1_node_58;
  to R4_25_00_1_node_227;
  length 157.071;
  configuration ID_32;
}
object overhead_line {
  name R4_25_00_1_ol_175;
// downstream 14.29 kva on CS
  phases CN;
  from R4_25_00_1_node_227;
  to R4_25_00_1_node_59;
  length 299.999;
  configuration ID_32;
}
object underground_line {
  name R4_25_00_1_ul_1;
// downstream 11.22 kva on CS
  phases CN;
  from R4_25_00_1_node_70;
  to R4_25_00_1_node_214;
  length 330.800;
  configuration ID_39;
}
object underground_line {
  name R4_25_00_1_ul_2;
// downstream 17.30 kva on CS
  phases CN;
  from R4_25_00_1_node_56;
  to R4_25_00_1_node_221;
  length 105.300;
  configuration ID_39;
}
object underground_line {
  name R4_25_00_1_ul_3;
// downstream 4.08 kva on CS
  phases CN;
  from R4_25_00_1_node_62;
  to R4_25_00_1_node_223;
  length 562.700;
  configuration ID_39;
}
object underground_line {
  name R4_25_00_1_ul_4;
// downstream 10.20 kva on CS
  phases CN;
  from R4_25_00_1_node_42;
  to R4_25_00_1_node_212;
  length 412.000;
  configuration ID_39;
}
object underground_line {
  name R4_25_00_1_ul_5;
// downstream 4.08 kva on CS
  phases CN;
  from R4_25_00_1_node_39;
  to R4_25_00_1_node_213;
  length 175.200;
  configuration ID_39;
}
object underground_line {
  name R4_25_00_1_ul_6;
// downstream 17.30 kva on CS
  phases CN;
  from R4_25_00_1_node_173;
  to R4_25_00_1_node_56;
  length 323.600;
  configuration ID_39;
}
object underground_line {
  name R4_25_00_1_ul_7;
// downstream 16.77 kva on CS
  phases CN;
  from R4_25_00_1_node_94;
  to R4_25_00_1_node_105;
  length 708.800;
  configuration ID_40;
}
object underground_line {
  name R4_25_00_1_ul_8;
// downstream 1.02 kva on CS
  phases CN;
  from R4_25_00_1_node_96;
  to R4_25_00_1_node_222;
  length 375.900;
  configuration ID_39;
}
object underground_line {
  name R4_25_00_1_ul_9;
// downstream 8.16 kva on CS
  phases CN;
  from R4_25_00_1_node_140;
  to R4_25_00_1_node_210;
  length 312.200;
  configuration ID_39;
}
object underground_line {
  name R4_25_00_1_ul_10;
// downstream 7.14 kva on CS
  phases CN;
  from R4_25_00_1_node_36;
  to R4_25_00_1_node_216;
  length 770.100;
  configuration ID_39;
}
object underground_line {
  name R4_25_00_1_ul_11;
// downstream 14.29 kva on CS
  phases CN;
  from R4_25_00_1_node_48;
  to R4_25_00_1_node_217;
  length 318.300;
  configuration ID_39;
}
object underground_line {
  name R4_25_00_1_ul_12;
// downstream 2.04 kva on CS
  phases CN;
  from R4_25_00_1_node_34;
  to R4_25_00_1_node_219;
  length 6.900;
  configuration ID_39;
}
object underground_line {
  name R4_25_00_1_ul_13;
// downstream 13.27 kva on AS
  phases AN;
  from R4_25_00_1_node_102;
  to R4_25_00_1_node_220;
  length 283.700;
  configuration ID_41;
}
object underground_line {
  name R4_25_00_1_ul_14;
// downstream 2.04 kva on CS
  phases CN;
  from R4_25_00_1_node_97;
  to R4_25_00_1_node_34;
  length 241.500;
  configuration ID_39;
}
object underground_line {
  name R4_25_00_1_ul_15;
// downstream 8.16 kva on CS
  phases CN;
  from R4_25_00_1_node_98;
  to R4_25_00_1_node_211;
  length 292.500;
  configuration ID_39;
}
object underground_line {
  name R4_25_00_1_ul_16;
// downstream 7.14 kva on CS
  phases CN;
  from R4_25_00_1_node_211;
  to R4_25_00_1_node_36;
  length 144.700;
  configuration ID_39;
}
object underground_line {
  name R4_25_00_1_ul_17;
// downstream 16.33 kva on CS
  phases CN;
  from R4_25_00_1_node_99;
  to R4_25_00_1_node_215;
  length 1594.600;
  configuration ID_39;
}
object underground_line {
  name R4_25_00_1_ul_18;
// downstream 4.08 kva on CS
  phases CN;
  from R4_25_00_1_node_100;
  to R4_25_00_1_node_39;
  length 69.300;
  configuration ID_39;
}
object underground_line {
  name R4_25_00_1_ul_19;
// downstream 7.14 kva on CS
  phases CN;
  from R4_25_00_1_node_101;
  to R4_25_00_1_node_218;
  length 215.300;
  configuration ID_39;
}
object underground_line {
  name R4_25_00_1_ul_20;
// downstream 9.18 kva on CS
  phases CN;
  from R4_25_00_1_node_95;
  to R4_25_00_1_node_224;
  length 376.800;
  configuration ID_40;
}
object underground_line {
  name R4_25_00_1_ul_21;
// downstream 14.29 kva on CS
  phases CN;
  from R4_25_00_1_node_76;
  to R4_25_00_1_node_228;
  length 280.000;
  configuration ID_40;
}
object underground_line {
  name R4_25_00_1_ul_22;
// downstream 11.18 kva on CS
  phases CN;
  from R4_25_00_1_node_221;
  to R4_25_00_1_node_229;
  length 152.000;
  configuration ID_40;
}
object triplex_line {
  name R4_25_00_1_tl_1;
// downstream 8.16 kva on BS
  phases BS;
  from R4_25_00_1_tn_1;
  to R4_25_00_1_tm_1;
  length 30;
  configuration ID_631;
}
object triplex_line {
  name R4_25_00_1_tl_2;
// downstream 9.18 kva on CS
  phases CS;
  from R4_25_00_1_tn_2;
  to R4_25_00_1_tm_2;
  length 30;
  configuration ID_631;
}
object triplex_line {
  name R4_25_00_1_tl_3;
// downstream 4.08 kva on CS
  phases CS;
  from R4_25_00_1_tn_3;
  to R4_25_00_1_tm_3;
  length 30;
  configuration ID_631;
}
object triplex_line {
  name R4_25_00_1_tl_4;
// downstream 3.06 kva on CS
  phases CS;
  from R4_25_00_1_tn_4;
  to R4_25_00_1_tm_4;
  length 30;
  configuration ID_631;
}
object triplex_line {
  name R4_25_00_1_tl_5;
// downstream 7.14 kva on CS
  phases CS;
  from R4_25_00_1_tn_5;
  to R4_25_00_1_tm_5;
  length 30;
  configuration ID_631;
}
object triplex_line {
  name R4_25_00_1_tl_6;
// downstream 18.37 kva on CS
  phases CS;
  from R4_25_00_1_tn_6;
  to R4_25_00_1_tm_6;
  length 30;
  configuration ID_631;
}
object triplex_line {
  name R4_25_00_1_tl_7;
// downstream 15.31 kva on CS
  phases CS;
  from R4_25_00_1_tn_7;
  to R4_25_00_1_tm_7;
  length 30;
  configuration ID_631;
}
object triplex_line {
  name R4_25_00_1_tl_8;
// downstream 6.12 kva on CS
  phases CS;
  from R4_25_00_1_tn_8;
  to R4_25_00_1_tm_8;
  length 30;
  configuration ID_631;
}
object triplex_line {
  name R4_25_00_1_tl_9;
// downstream 8.16 kva on CS
  phases CS;
  from R4_25_00_1_tn_9;
  to R4_25_00_1_tm_9;
  length 30;
  configuration ID_631;
}
object triplex_line {
  name R4_25_00_1_tl_10;
// downstream 7.14 kva on CS
  phases CS;
  from R4_25_00_1_tn_10;
  to R4_25_00_1_tm_10;
  length 30;
  configuration ID_631;
}
object triplex_line {
  name R4_25_00_1_tl_11;
// downstream 1.02 kva on CS
  phases CS;
  from R4_25_00_1_tn_11;
  to R4_25_00_1_tm_11;
  length 30;
  configuration ID_631;
}
object triplex_line {
  name R4_25_00_1_tl_12;
// downstream 2.04 kva on CS
  phases CS;
  from R4_25_00_1_tn_12;
  to R4_25_00_1_tm_12;
  length 30;
  configuration ID_631;
}
object triplex_line {
  name R4_25_00_1_tl_13;
// downstream 10.20 kva on BS
  phases BS;
  from R4_25_00_1_tn_13;
  to R4_25_00_1_tm_13;
  length 30;
  configuration ID_631;
}
object triplex_line {
  name R4_25_00_1_tl_14;
// downstream 16.33 kva on BS
  phases BS;
  from R4_25_00_1_tn_14;
  to R4_25_00_1_tm_14;
  length 30;
  configuration ID_631;
}
object triplex_line {
  name R4_25_00_1_tl_15;
// downstream 10.20 kva on BS
  phases BS;
  from R4_25_00_1_tn_15;
  to R4_25_00_1_tm_15;
  length 30;
  configuration ID_631;
}
object triplex_line {
  name R4_25_00_1_tl_16;
// downstream 5.10 kva on BS
  phases BS;
  from R4_25_00_1_tn_16;
  to R4_25_00_1_tm_16;
  length 30;
  configuration ID_631;
}
object triplex_line {
  name R4_25_00_1_tl_17;
// downstream 7.14 kva on BS
  phases BS;
  from R4_25_00_1_tn_17;
  to R4_25_00_1_tm_17;
  length 30;
  configuration ID_631;
}
object triplex_line {
  name R4_25_00_1_tl_18;
// downstream 3.06 kva on BS
  phases BS;
  from R4_25_00_1_tn_18;
  to R4_25_00_1_tm_18;
  length 30;
  configuration ID_631;
}
object triplex_line {
  name R4_25_00_1_tl_19;
// downstream 6.71 kva on BS
  phases BS;
  from R4_25_00_1_tn_19;
  to R4_25_00_1_tm_19;
  length 30;
  configuration ID_631;
}
object triplex_line {
  name R4_25_00_1_tl_20;
// downstream 13.27 kva on BS
  phases BS;
  from R4_25_00_1_tn_20;
  to R4_25_00_1_tm_20;
  length 30;
  configuration ID_631;
}
object triplex_line {
  name R4_25_00_1_tl_21;
// downstream 2.59 kva on AS
  phases AS;
  from R4_25_00_1_tn_21;
  to R4_25_00_1_tm_21;
  length 30;
  configuration ID_631;
}
object triplex_line {
  name R4_25_00_1_tl_22;
// downstream 2.59 kva on BS
  phases BS;
  from R4_25_00_1_tn_22;
...